tests/data/psse/case7_v32.raw
 0,    100.00, 32, 0, 0, 60.00
case7_v32
revision 32 layouts for every record type the reader maps, plus zone, owner, and impedance correction records it skips
    1,'SWING       ', 230.0000,3,   1,   1,   1,1.03000000,   0.000000
    2,'NORTH       ', 230.0000,2,   1,   1,   1,1.02000000,  -2.100000
    3,'SOUTH       ', 138.0000,1,   1,   1,   1,0.99000000,  -5.400000
    4,'EAST        ', 138.0000,1,   1,   1,   1,0.98000000,  -6.200000
    5,'TERTIARY    ',  13.8000,1,   1,   1,   1,1.00000000,  -7.000000
    6,'RECT        ', 230.0000,1,   2,   2,   1,1.01000000,  -3.000000
    7,'INV         ', 230.0000,1,   2,   2,   1,0.99500000,  -8.500000
0 / END OF BUS DATA, BEGIN LOAD DATA
    3,'1 ',1,   1,   1,    60.000,    20.000,     0.000,     0.000,     0.000,     0.000,   1,1
    4,'1 ',1,   1,   1,    40.000,    10.000,     5.000,     2.000,     3.000,     1.000,   1,1
    7,'1 ',1,   2,   2,    50.000,    15.000,     0.000,     0.000,     0.000,     0.000,   1,1
0 / END OF LOAD DATA, BEGIN FIXED SHUNT DATA
    4,'1 ',1,     0.000,    15.000
0 / END OF FIXED SHUNT DATA, BEGIN GENERATOR DATA
    1,'1 ',   120.000,    25.000,   100.000,  -100.000,1.03000,    0,   200.000,   0.00000,   0.25000,   0.00000,   0.00000,1.00000,1,  100.0,   250.000,    10.000,   1,1.0000,   0,1.0000,   0,1.0000,   0,1.0000,0, 1.0000
    2,'1 ',    80.000,    10.000,    60.000,   -60.000,1.02000,    0,   100.000,   0.00000,   0.30000,   0.00000,   0.00000,1.00000,1,  100.0,   120.000,     0.000,   1,1.0000,   0,1.0000,   0,1.0000,   0,1.0000,0, 1.0000
0 / END OF GENERATOR DATA, BEGIN BRANCH DATA
     1,     2,'1 ', 0.01000, 0.08000,0.20000, 300.00, 320.00, 350.00,  0.00000,  0.00000,  0.00000,  0.00000,1,1,  50.0,   1,1.0000,   0,1.0000,   0,1.0000,   0,1.0000
     1,     6,'1 ', 0.02000, 0.10000,0.10000, 200.00,   0.00,   0.00,  0.00000,  0.00000,  0.00000,  0.00000,1,1,   0.0,   1,1.0000,   0,1.0000,   0,1.0000,   0,1.0000
     3,     4,'1 ', 0.03000, 0.12000,0.05000, 150.00,   0.00,   0.00,  0.00000,  0.00000,  0.00000,  0.00000,1,1,   0.0,   1,1.0000,   0,1.0000,   0,1.0000,   0,1.0000
     2,     7,'1 ', 0.02000, 0.09000,0.10000, 200.00,   0.00,   0.00,  0.00000,  0.00000,  0.00000,  0.00000,1,1,   0.0,   1,1.0000,   0,1.0000,   0,1.0000,   0,1.0000
0 / END OF BRANCH DATA, BEGIN TRANSFORMER DATA
     2,     3,     0,'1 ',1,1,1,  0.00100, -0.02000,2,'T23         ',1,   1,1.0000,   0,1.0000,   0,1.0000,   0,1.0000
 0.00500, 0.10000, 100.00
1.02500,  0.000,   0.000, 150.00, 160.00, 170.00,1,     3, 1.10000, 0.90000, 1.05000, 0.95000, 33, 0, 0.00000, 0.00000
1.00000,  0.000
     1,     4,     5,'1 ',1,1,1,  0.00000,  0.00000,2,'T3W         ',1,   1,1.0000,   0,1.0000,   0,1.0000,   0,1.0000
 0.01000, 0.10000, 100.00, 0.02000, 0.20000, 100.00, 0.03000, 0.30000, 100.00,0.98000,  -1.500
1.00000,230.000,   0.000, 100.00,  90.00,  80.00,0,     0, 1.10000, 0.90000, 1.10000, 0.90000, 33, 0, 0.00000, 0.00000
1.02500,138.000,   0.000, 110.00,   0.00,   0.00,0,     0, 1.10000, 0.90000, 1.10000, 0.90000, 33, 0, 0.00000, 0.00000
0.95000, 13.800,  30.000,  50.00,   0.00,   0.00,0,     0, 1.10000, 0.90000, 1.10000, 0.90000, 33, 0, 0.00000, 0.00000
0 / END OF TRANSFORMER DATA, BEGIN AREA DATA
   1,    1,     0.000,    10.000,'AREA ONE    '
   2,    0,   -50.000,    10.000,'AREA TWO    '
0 / END OF AREA DATA, BEGIN TWO-TERMINAL DC DATA
'DC1         ',1,   5.000,   100.000,   500.000,   0.000,   0.000,   0.000,'I',   0.000,20,  1.000
     6,2, 15.00,  5.00, 0.00000, 0.00000, 230.00,1.00000,1.00000,1.50000,0.51000,0.00625,0,0,0,'1', 0.000
     7,2, 18.00, 15.00, 0.00000, 0.00000, 230.00,1.00000,1.00000,1.50000,0.51000,0.00625,0,0,0,'1', 0.000
0 / END OF TWO-TERMINAL DC DATA, BEGIN VOLTAGE SOURCE CONVERTER DATA
0 / END OF VOLTAGE SOURCE CONVERTER DATA, BEGIN IMPEDANCE CORRECTION DATA
   1, 0.90000, 1.02000, 1.00000, 1.00000, 1.10000, 1.03000
0 / END OF IMPEDANCE CORRECTION DATA, BEGIN MULTI-TERMINAL DC DATA
0 / END OF MULTI-TERMINAL DC DATA, BEGIN MULTI-SECTION LINE DATA
0 / END OF MULTI-SECTION LINE DATA, BEGIN ZONE DATA
   1,'ZONE ONE    '
   2,'ZONE TWO    '
0 / END OF ZONE DATA, BEGIN INTER-AREA TRANSFER DATA
   1,   2,'1',    25.000
0 / END OF INTER-AREA TRANSFER DATA, BEGIN OWNER DATA
    1,'OWNER ONE   '
0 / END OF OWNER DATA, BEGIN FACTS CONTROL DEVICE DATA
0 / END OF FACTS CONTROL DEVICE DATA, BEGIN SWITCHED SHUNT DATA
    4,2,0,1,1.05000,0.95000,     0, 100.0,'            ',   10.000,   2,   5.000,   1,  10.000
0 /END OF SWITCHED SHUNT DATA, BEGIN GNE DEVICE DATA
0 /END OF GNE DEVICE DATA
Q
